LAMMPS (21 Nov 2023 - Development - patch_21Nov2023-382-g3206608dc0-modified)
units           metal
boundary        p p p
atom_style      full

neigh_modify    every 10 delay 0 check no

read_data   C.monolayer.data
Reading data file ...
  orthogonal box = (0 0 -50) to (59.044507 102.26809 50)
  reading atoms ...
  2304 atoms
Finding 1-2 1-3 1-4 neighbors ...
     0 = max # of 1-2 neighbors
     0 = max # of 1-3 neighbors
     0 = max # of 1-4 neighbors
     1 = max # of special neighbors
mass        1 12.01

pair_style  nep
pair_coeff * * nep.C.GAP2020 C

compute    1 all pe/atom
compute    pe all reduce sum c_1
dump 1 all custom 1 out.dump id type x y z fx fy fz
run 1
Step          Temp          E_pair         E_mol          TotEng         Press
0   0             -18322.775      0             -18322.775      244.43116
Loop time of 0.062365 on 4 procs for 1 steps with 2304 atoms

velocity        all create 300 23456789
fix             1 all npt temp 300 300 0.1 iso 0 0 1
fix             2 all momentum 1 linear 1 1 1
timestep        0.001
thermo_style    custom step pe ke etotal temp press vol pxx pyy pzz pxy pxz pyz
thermo          10
dump 20 all custom 20 out.dump id type x y z fx fy fz
run             1000
Step         PotEng         KinEng         TotEng          Temp          Press          Volume          Pxx            Pyy            Pzz            Pxy            Pxz            Pyz
1  -18322.775      89.305834     -18233.469      300            402.40286      603836.88      524.55671      520.86748      161.78438     -1.3361081     -0.41535875     0.32044281
Averages over the last 51 of 102 rows, steps 510 to 1001:
PotEng KinEng TotEng Temp Press Volume Pxx Pyy Pzz Pxy Pxz Pyz
-18232.3 88.8372 -18143.4 298.426 -5.4207 604691 -4.69484 -8.82608 -2.74117 -23.6269 -0.69304 0.940182
Loop time of 61.7802 on 4 procs for 1000 steps with 2304 atoms
