LAMMPS (21 Nov 2023 - Development - patch_21Nov2023-382-g3206608dc0-modified)
units           metal
boundary        p p p
atom_style      full

neigh_modify    every 10 delay 0 check no

read_data   C.bilayer.data
Reading data file ...
  triclinic box = (-33.215409 -19.218771 -50) to (16.018191 23.423596 50) with tilt (24.616577 0 0)
  reading atoms ...
  1600 atoms
Finding 1-2 1-3 1-4 neighbors ...
     0 = max # of 1-2 neighbors
     0 = max # of 1-3 neighbors
     0 = max # of 1-4 neighbors
     1 = max # of special neighbors
mass        1 12.01
mass        2 12.01

pair_style  nep
pair_coeff * * nep.C.GAP2020 C C

compute    1 all pe/atom
compute    pe all reduce sum c_1
dump 1 all custom 1 out.dump id type x y z fx fy fz
run 1
Step          Temp          E_pair         E_mol          TotEng         Press
0   0             -12761.655      0             -12761.655      809.11532
Loop time of 0.101977 on 4 procs for 1 steps with 1600 atoms

velocity        all create 300 23456789
fix             1 all npt temp 300 300 0.1 iso 0 0 1
fix             2 all momentum 1 linear 1 1 1
timestep        0.001
thermo_style    custom step pe ke etotal temp press vol pxx pyy pzz pxy pxz pyz
thermo          10
dump 20 all custom 20 out.dump id type x y z fx fy fz
run             1000
Step         PotEng         KinEng         TotEng          Temp          Press          Volume          Pxx            Pyy            Pzz            Pxy            Pxz            Pyz
1  -12761.655      62.006092     -12699.649      300            1124.5799      209943.72      1859.3442      1761.9602     -247.56478     -5.1105456     -1.3424365      7.8890841
Averages over the last 51 of 102 rows, steps 510 to 1001:
PotEng KinEng TotEng Temp Press Volume Pxx Pyy Pzz Pxy Pxz Pyz
-12714.4 62.5358 -12651.9 302.563 -20.1934 210782 185.953 -158.868 -87.6647 80.9806 -3.92309 -53.5392
Loop time of 96.4697 on 4 procs for 1000 steps with 1600 atoms
