LAMMPS (21 Nov 2023 - Development - patch_21Nov2023-382-g3206608dc0-modified)
units           metal
boundary        p p p
atom_style      full

neigh_modify    every 10 delay 0 check no

variable    mW  equal 183.84
variable    mMo equal 95.94
variable    mSe equal 78.96

read_data   TMD.bilayer.data
Reading data file ...
  orthogonal box = (0 0 -50) to (74.820854 129.59352 50)
  reading atoms ...
  6912 atoms
Finding 1-2 1-3 1-4 neighbors ...
     0 = max # of 1-2 neighbors
     0 = max # of 1-3 neighbors
     0 = max # of 1-4 neighbors
     1 = max # of special neighbors
mass        1 95.94
mass        2 78.96
mass        3 78.96
mass        4 183.84
mass        5 78.96
mass        6 78.96

pair_style  hybrid/overlay nep nep lj/cut 0.1
pair_coeff * * nep 1 nep.MoWSe Mo Se Se NULL NULL NULL
pair_coeff * * nep 2 nep.MoWSe NULL NULL NULL W Se Se
pair_coeff * * lj/cut 1 1

compute    1 all pe/atom
compute    pe all reduce sum c_1
dump 1 all custom 1 out.dump id type x y z fx fy fz
# run 1
velocity        all create 300 23456789
fix             1 all npt temp 300 300 0.1 iso 0 0 1
fix             2 all momentum 1 linear 1 1 1
timestep        0.001
thermo_style    custom step pe ke etotal temp press vol pxx pyy pzz pxy pxz pyz
thermo          10
dump 20 all custom 20 out.dump id type x y z fx fy fz
run             1000
Step         PotEng         KinEng         TotEng          Temp          Press          Volume          Pxx            Pyy            Pzz            Pxy            Pxz            Pyz
0  -45268.286      267.99506     -45000.291      300            48210.87       969629.78      45336.767      45331.224      53964.618     -8.2667287      1.1304768     -2.3173023
Averages over the last 51 of 101 rows, steps 500 to 1000:
PotEng KinEng TotEng Temp Press Volume Pxx Pyy Pzz Pxy Pxz Pyz
-47732 200.185 -47531.8 224.092 16.7719 1.17808e+06 19.0457 10.5682 20.7017 -3.35994 28.3114 -6.37404
Loop time of 80.7665 on 8 procs for 1000 steps with 6912 atoms
